
Note: No compatibility mode selected!


Circuit: ** sch_path: /home/tare/desktop/analog design/cmp_test-1.sch

binary raw file "/home/tare/Desktop/Analog design/simulation/cmp_test-1.raw"
Doing analysis at TEMP = 27.000000 and TNOM = 27.000000

No. of Data Columns : 13  

Initial Transient Solution
--------------------------

Node                                   Voltage
----                                   -------
vinn                                         1
vinp                                         0
x1.vinni                                     1
x1.vinpi                                     0
voutp                                        0
voutn                                        2
b.x1.b2#branch                               0
b.x1.b1#branch                               0
v.x1.v2#branch                               0
v.x1.v1#branch                               0
v2#branch                                    0
v1#branch                                    0


No. of Data Rows : 66

Total analysis time (seconds) = 0.001

Total elapsed time (seconds) = 0.004 

Total DRAM available = 7902.500 MB.
DRAM currently available = 5831.812 MB.
Maximum ngspice program size =   25.297 MB.
Current ngspice program size =   11.324 MB.

Shared ngspice pages =    9.734 MB.
Text (code) pages =    5.387 MB.
Stack = 0 bytes.
Library pages =    1.910 MB.

