
Note: No compatibility mode selected!


Circuit: ** sch_path: /home/tare/desktop/analog design/dff.sch


Note: No compatibility mode selected!

Warning: Model issue on line 34 :
  .model my_dff d_dff(clk_delay=0.5e-9 set_delay=0.5e-9 rreset_delay=0.5e- ...
MIF: unrecognized parameter (rreset_delay) - ignored
MIF: unrecognized parameter (0.5e-9) - ignored
binary raw file "/home/tare/Desktop/Analog design/simulation/dff.raw"
Reducing trtol to 1 for xspice 'A' devices
Doing analysis at TEMP = 27.000000 and TNOM = 27.000000

No. of Data Columns : 13  

Initial Transient Solution
--------------------------

Node                                   Voltage
----                                   -------
d                                            0
clk                                          0
rst                                          0
set                                          0
q                                            0
qb                                           2
v1#branch                                    0
v3#branch                                    0
v5#branch                                    0
v4#branch                                    0
auto_dac3#branch_1_0                         0
auto_dac3#branch_1_1                         0


No. of Data Rows : 20584

Total analysis time (seconds) = 0.2

Total elapsed time (seconds) = 0.212 

Total DRAM available = 7902.477 MB.
DRAM currently available = 6053.727 MB.
Maximum ngspice program size =   25.402 MB.
Current ngspice program size =   11.816 MB.

Shared ngspice pages =    9.984 MB.
Text (code) pages =    5.387 MB.
Stack = 0 bytes.
Library pages =    2.016 MB.

