
Note: No compatibility mode selected!


Circuit: ** sch_path: /home/tare/desktop/analog design/nand.sch


Note: No compatibility mode selected!

binary raw file "/home/tare/Desktop/Analog design/simulation/nand.raw"
Reducing trtol to 1 for xspice 'A' devices
Doing analysis at TEMP = 27.000000 and TNOM = 27.000000

No. of Data Columns : 7  

Initial Transient Solution
--------------------------

Node                                   Voltage
----                                   -------
a                                            0
y                                            2
x                                            0
v2#branch                                    0
v1#branch                                    0
auto_dac3#branch_1_0                         0


No. of Data Rows : 5643

Total analysis time (seconds) = 0.061

Total elapsed time (seconds) = 0.071 

Total DRAM available = 7902.492 MB.
DRAM currently available = 6236.246 MB.
Maximum ngspice program size =   25.402 MB.
Current ngspice program size =   11.469 MB.

Shared ngspice pages =    9.633 MB.
Text (code) pages =    5.387 MB.
Stack = 0 bytes.
Library pages =    2.016 MB.

