
Note: No compatibility mode selected!


Circuit: ** sch_path: /home/tare/desktop/analog design/nor.sch


Note: No compatibility mode selected!

binary raw file "/home/tare/Desktop/Analog design/simulation/nor.raw"
Reducing trtol to 1 for xspice 'A' devices
Doing analysis at TEMP = 27.000000 and TNOM = 27.000000

No. of Data Columns : 7  

Initial Transient Solution
--------------------------

Node                                   Voltage
----                                   -------
a                                            0
y                                            2
x                                            0
v2#branch                                    0
v1#branch                                    0
auto_dac3#branch_1_0                         0


No. of Data Rows : 5409

Total analysis time (seconds) = 0.031

Total elapsed time (seconds) = 0.039 

Total DRAM available = 7902.480 MB.
DRAM currently available = 6188.934 MB.
Maximum ngspice program size =   25.406 MB.
Current ngspice program size =   11.629 MB.

Shared ngspice pages =    9.793 MB.
Text (code) pages =    5.387 MB.
Stack = 0 bytes.
Library pages =    2.020 MB.

